data_DC_Cu110.cif
_cell_length_a                   39.0800
_cell_length_b                   41.4506
_cell_length_c                   50.0000
_cell_angle_alpha                90.0000
_cell_angle_beta                 90.0000
_cell_angle_gamma                90.0000
_symmetry_space_group_name_Hall  'P1'
_symmetry_space_group_name_H-M   'P1'
loop_
_atom_site_label
_atom_site_type_symbol
_atom_site_fract_x
_atom_site_fract_y
_atom_site_fract_z
Cu0    Cu  0.0000  0.0000  0.0000
Cu1    Cu  0.1000  0.0000  0.0000
Cu2    Cu  0.2000  0.0000  0.0000
Cu3    Cu  0.3000  0.0000  0.0000
Cu4    Cu  0.4000  0.0000  0.0000
Cu5    Cu  0.5000  0.0000  0.0000
Cu6    Cu  0.6000  0.0000  0.0000
Cu7    Cu  0.7000  0.0000  0.0000
Cu8    Cu  0.8000  0.0000  0.0000
Cu9    Cu  0.9000  0.0000  0.0000
Cu10   Cu  0.0000  0.0667  0.0000
Cu11   Cu  0.1000  0.0667  0.0000
Cu12   Cu  0.2000  0.0667  0.0000
Cu13   Cu  0.3000  0.0667  0.0000
Cu14   Cu  0.4000  0.0667  0.0000
Cu15   Cu  0.5000  0.0667  0.0000
Cu16   Cu  0.6000  0.0667  0.0000
Cu17   Cu  0.7000  0.0667  0.0000
Cu18   Cu  0.8000  0.0667  0.0000
Cu19   Cu  0.9000  0.0667  0.0000
Cu20   Cu  0.0000  0.1333  0.0000
Cu21   Cu  0.1000  0.1333  0.0000
Cu22   Cu  0.2000  0.1333  0.0000
Cu23   Cu  0.3000  0.1333  0.0000
Cu24   Cu  0.4000  0.1333  0.0000
Cu25   Cu  0.5000  0.1333  0.0000
Cu26   Cu  0.6000  0.1333  0.0000
Cu27   Cu  0.7000  0.1333  0.0000
Cu28   Cu  0.8000  0.1333  0.0000
Cu29   Cu  0.9000  0.1333  0.0000
Cu30   Cu  0.0000  0.2000  0.0000
Cu31   Cu  0.1000  0.2000  0.0000
Cu32   Cu  0.2000  0.2000  0.0000
Cu33   Cu  0.3000  0.2000  0.0000
Cu34   Cu  0.4000  0.2000  0.0000
Cu35   Cu  0.5000  0.2000  0.0000
Cu36   Cu  0.6000  0.2000  0.0000
Cu37   Cu  0.7000  0.2000  0.0000
Cu38   Cu  0.8000  0.2000  0.0000
Cu39   Cu  0.9000  0.2000  0.0000
Cu40   Cu  0.0000  0.2667  0.0000
Cu41   Cu  0.1000  0.2667  0.0000
Cu42   Cu  0.2000  0.2667  0.0000
Cu43   Cu  0.3000  0.2667  0.0000
Cu44   Cu  0.4000  0.2667  0.0000
Cu45   Cu  0.5000  0.2667  0.0000
Cu46   Cu  0.6000  0.2667  0.0000
Cu47   Cu  0.7000  0.2667  0.0000
Cu48   Cu  0.8000  0.2667  0.0000
Cu49   Cu  0.9000  0.2667  0.0000
Cu50   Cu  0.0000  0.3333  0.0000
Cu51   Cu  0.1000  0.3333  0.0000
Cu52   Cu  0.2000  0.3333  0.0000
Cu53   Cu  0.3000  0.3333  0.0000
Cu54   Cu  0.4000  0.3333  0.0000
Cu55   Cu  0.5000  0.3333  0.0000
Cu56   Cu  0.6000  0.3333  0.0000
Cu57   Cu  0.7000  0.3333  0.0000
Cu58   Cu  0.8000  0.3333  0.0000
Cu59   Cu  0.9000  0.3333  0.0000
Cu60   Cu  0.0000  0.4000  0.0000
Cu61   Cu  0.1000  0.4000  0.0000
Cu62   Cu  0.2000  0.4000  0.0000
Cu63   Cu  0.3000  0.4000  0.0000
Cu64   Cu  0.4000  0.4000  0.0000
Cu65   Cu  0.5000  0.4000  0.0000
Cu66   Cu  0.6000  0.4000  0.0000
Cu67   Cu  0.7000  0.4000  0.0000
Cu68   Cu  0.8000  0.4000  0.0000
Cu69   Cu  0.9000  0.4000  0.0000
Cu70   Cu  0.0000  0.4667  0.0000
Cu71   Cu  0.1000  0.4667  0.0000
Cu72   Cu  0.2000  0.4667  0.0000
Cu73   Cu  0.3000  0.4667  0.0000
Cu74   Cu  0.4000  0.4667  0.0000
Cu75   Cu  0.5000  0.4667  0.0000
Cu76   Cu  0.6000  0.4667  0.0000
Cu77   Cu  0.7000  0.4667  0.0000
Cu78   Cu  0.8000  0.4667  0.0000
Cu79   Cu  0.9000  0.4667  0.0000
Cu80   Cu  0.0000  0.5333  0.0000
Cu81   Cu  0.1000  0.5333  0.0000
Cu82   Cu  0.2000  0.5333  0.0000
Cu83   Cu  0.3000  0.5333  0.0000
Cu84   Cu  0.4000  0.5333  0.0000
Cu85   Cu  0.5000  0.5333  0.0000
Cu86   Cu  0.6000  0.5333  0.0000
Cu87   Cu  0.7000  0.5333  0.0000
Cu88   Cu  0.8000  0.5333  0.0000
Cu89   Cu  0.9000  0.5333  0.0000
Cu90   Cu  0.0000  0.6000  0.0000
Cu91   Cu  0.1000  0.6000  0.0000
Cu92   Cu  0.2000  0.6000  0.0000
Cu93   Cu  0.3000  0.6000  0.0000
Cu94   Cu  0.4000  0.6000  0.0000
Cu95   Cu  0.5000  0.6000  0.0000
Cu96   Cu  0.6000  0.6000  0.0000
Cu97   Cu  0.7000  0.6000  0.0000
Cu98   Cu  0.8000  0.6000  0.0000
Cu99   Cu  0.9000  0.6000  0.0000
Cu100  Cu  0.0000  0.6667  0.0000
Cu101  Cu  0.1000  0.6667  0.0000
Cu102  Cu  0.2000  0.6667  0.0000
Cu103  Cu  0.3000  0.6667  0.0000
Cu104  Cu  0.4000  0.6667  0.0000
Cu105  Cu  0.5000  0.6667  0.0000
Cu106  Cu  0.6000  0.6667  0.0000
Cu107  Cu  0.7000  0.6667  0.0000
Cu108  Cu  0.8000  0.6667  0.0000
Cu109  Cu  0.9000  0.6667  0.0000
Cu110  Cu  0.0000  0.7333  0.0000
Cu111  Cu  0.1000  0.7333  0.0000
Cu112  Cu  0.2000  0.7333  0.0000
Cu113  Cu  0.3000  0.7333  0.0000
Cu114  Cu  0.4000  0.7333  0.0000
Cu115  Cu  0.5000  0.7333  0.0000
Cu116  Cu  0.6000  0.7333  0.0000
Cu117  Cu  0.7000  0.7333  0.0000
Cu118  Cu  0.8000  0.7333  0.0000
Cu119  Cu  0.9000  0.7333  0.0000
Cu120  Cu  0.0000  0.8000  0.0000
Cu121  Cu  0.1000  0.8000  0.0000
Cu122  Cu  0.2000  0.8000  0.0000
Cu123  Cu  0.3000  0.8000  0.0000
Cu124  Cu  0.4000  0.8000  0.0000
Cu125  Cu  0.5000  0.8000  0.0000
Cu126  Cu  0.6000  0.8000  0.0000
Cu127  Cu  0.7000  0.8000  0.0000
Cu128  Cu  0.8000  0.8000  0.0000
Cu129  Cu  0.9000  0.8000  0.0000
Cu130  Cu  0.0000  0.8667  0.0000
Cu131  Cu  0.1000  0.8667  0.0000
Cu132  Cu  0.2000  0.8667  0.0000
Cu133  Cu  0.3000  0.8667  0.0000
Cu134  Cu  0.4000  0.8667  0.0000
Cu135  Cu  0.5000  0.8667  0.0000
Cu136  Cu  0.6000  0.8667  0.0000
Cu137  Cu  0.7000  0.8667  0.0000
Cu138  Cu  0.8000  0.8667  0.0000
Cu139  Cu  0.9000  0.8667  0.0000
Cu140  Cu  0.0000  0.9333  0.0000
Cu141  Cu  0.1000  0.9333  0.0000
Cu142  Cu  0.2000  0.9333  0.0000
Cu143  Cu  0.3000  0.9333  0.0000
Cu144  Cu  0.4000  0.9333  0.0000
Cu145  Cu  0.5000  0.9333  0.0000
Cu146  Cu  0.6000  0.9333  0.0000
Cu147  Cu  0.7000  0.9333  0.0000
Cu148  Cu  0.8000  0.9333  0.0000
Cu149  Cu  0.9000  0.9333  0.0000
Cu150  Cu  0.0500  0.0333  0.0276
Cu151  Cu  0.1500  0.0333  0.0276
Cu152  Cu  0.2500  0.0333  0.0276
Cu153  Cu  0.3500  0.0333  0.0276
Cu154  Cu  0.4500  0.0333  0.0276
Cu155  Cu  0.5500  0.0333  0.0276
Cu156  Cu  0.6500  0.0333  0.0276
Cu157  Cu  0.7500  0.0333  0.0276
Cu158  Cu  0.8500  0.0333  0.0276
Cu159  Cu  0.9500  0.0333  0.0276
Cu160  Cu  0.0500  0.1000  0.0276
Cu161  Cu  0.1500  0.1000  0.0276
Cu162  Cu  0.2500  0.1000  0.0276
Cu163  Cu  0.3500  0.1000  0.0276
Cu164  Cu  0.4500  0.1000  0.0276
Cu165  Cu  0.5500  0.1000  0.0276
Cu166  Cu  0.6500  0.1000  0.0276
Cu167  Cu  0.7500  0.1000  0.0276
Cu168  Cu  0.8500  0.1000  0.0276
Cu169  Cu  0.9500  0.1000  0.0276
Cu170  Cu  0.0500  0.1667  0.0276
Cu171  Cu  0.1500  0.1667  0.0276
Cu172  Cu  0.2500  0.1667  0.0276
Cu173  Cu  0.3500  0.1667  0.0276
Cu174  Cu  0.4500  0.1667  0.0276
Cu175  Cu  0.5500  0.1667  0.0276
Cu176  Cu  0.6500  0.1667  0.0276
Cu177  Cu  0.7500  0.1667  0.0276
Cu178  Cu  0.8500  0.1667  0.0276
Cu179  Cu  0.9500  0.1667  0.0276
Cu180  Cu  0.0500  0.2333  0.0276
Cu181  Cu  0.1500  0.2333  0.0276
Cu182  Cu  0.2500  0.2333  0.0276
Cu183  Cu  0.3500  0.2333  0.0276
Cu184  Cu  0.4500  0.2333  0.0276
Cu185  Cu  0.5500  0.2333  0.0276
Cu186  Cu  0.6500  0.2333  0.0276
Cu187  Cu  0.7500  0.2333  0.0276
Cu188  Cu  0.8500  0.2333  0.0276
Cu189  Cu  0.9500  0.2333  0.0276
Cu190  Cu  0.0500  0.3000  0.0276
Cu191  Cu  0.1500  0.3000  0.0276
Cu192  Cu  0.2500  0.3000  0.0276
Cu193  Cu  0.3500  0.3000  0.0276
Cu194  Cu  0.4500  0.3000  0.0276
Cu195  Cu  0.5500  0.3000  0.0276
Cu196  Cu  0.6500  0.3000  0.0276
Cu197  Cu  0.7500  0.3000  0.0276
Cu198  Cu  0.8500  0.3000  0.0276
Cu199  Cu  0.9500  0.3000  0.0276
Cu200  Cu  0.0500  0.3667  0.0276
Cu201  Cu  0.1500  0.3667  0.0276
Cu202  Cu  0.2500  0.3667  0.0276
Cu203  Cu  0.3500  0.3667  0.0276
Cu204  Cu  0.4500  0.3667  0.0276
Cu205  Cu  0.5500  0.3667  0.0276
Cu206  Cu  0.6500  0.3667  0.0276
Cu207  Cu  0.7500  0.3667  0.0276
Cu208  Cu  0.8500  0.3667  0.0276
Cu209  Cu  0.9500  0.3667  0.0276
Cu210  Cu  0.0500  0.4333  0.0276
Cu211  Cu  0.1500  0.4333  0.0276
Cu212  Cu  0.2500  0.4333  0.0276
Cu213  Cu  0.3500  0.4333  0.0276
Cu214  Cu  0.4500  0.4333  0.0276
Cu215  Cu  0.5500  0.4333  0.0276
Cu216  Cu  0.6500  0.4333  0.0276
Cu217  Cu  0.7500  0.4333  0.0276
Cu218  Cu  0.8500  0.4333  0.0276
Cu219  Cu  0.9500  0.4333  0.0276
Cu220  Cu  0.0500  0.5000  0.0276
Cu221  Cu  0.1500  0.5000  0.0276
Cu222  Cu  0.2500  0.5000  0.0276
Cu223  Cu  0.3500  0.5000  0.0276
Cu224  Cu  0.4500  0.5000  0.0276
Cu225  Cu  0.5500  0.5000  0.0276
Cu226  Cu  0.6500  0.5000  0.0276
Cu227  Cu  0.7500  0.5000  0.0276
Cu228  Cu  0.8500  0.5000  0.0276
Cu229  Cu  0.9500  0.5000  0.0276
Cu230  Cu  0.0500  0.5667  0.0276
Cu231  Cu  0.1500  0.5667  0.0276
Cu232  Cu  0.2500  0.5667  0.0276
Cu233  Cu  0.3500  0.5667  0.0276
Cu234  Cu  0.4500  0.5667  0.0276
Cu235  Cu  0.5500  0.5667  0.0276
Cu236  Cu  0.6500  0.5667  0.0276
Cu237  Cu  0.7500  0.5667  0.0276
Cu238  Cu  0.8500  0.5667  0.0276
Cu239  Cu  0.9500  0.5667  0.0276
Cu240  Cu  0.0500  0.6333  0.0276
Cu241  Cu  0.1500  0.6333  0.0276
Cu242  Cu  0.2500  0.6333  0.0276
Cu243  Cu  0.3500  0.6333  0.0276
Cu244  Cu  0.4500  0.6333  0.0276
Cu245  Cu  0.5500  0.6333  0.0276
Cu246  Cu  0.6500  0.6333  0.0276
Cu247  Cu  0.7500  0.6333  0.0276
Cu248  Cu  0.8500  0.6333  0.0276
Cu249  Cu  0.9500  0.6333  0.0276
Cu250  Cu  0.0500  0.7000  0.0276
Cu251  Cu  0.1500  0.7000  0.0276
Cu252  Cu  0.2500  0.7000  0.0276
Cu253  Cu  0.3500  0.7000  0.0276
Cu254  Cu  0.4500  0.7000  0.0276
Cu255  Cu  0.5500  0.7000  0.0276
Cu256  Cu  0.6500  0.7000  0.0276
Cu257  Cu  0.7500  0.7000  0.0276
Cu258  Cu  0.8500  0.7000  0.0276
Cu259  Cu  0.9500  0.7000  0.0276
Cu260  Cu  0.0500  0.7667  0.0276
Cu261  Cu  0.1500  0.7667  0.0276
Cu262  Cu  0.2500  0.7667  0.0276
Cu263  Cu  0.3500  0.7667  0.0276
Cu264  Cu  0.4500  0.7667  0.0276
Cu265  Cu  0.5500  0.7667  0.0276
Cu266  Cu  0.6500  0.7667  0.0276
Cu267  Cu  0.7500  0.7667  0.0276
Cu268  Cu  0.8500  0.7667  0.0276
Cu269  Cu  0.9500  0.7667  0.0276
Cu270  Cu  0.0500  0.8333  0.0276
Cu271  Cu  0.1500  0.8333  0.0276
Cu272  Cu  0.2500  0.8333  0.0276
Cu273  Cu  0.3500  0.8333  0.0276
Cu274  Cu  0.4500  0.8333  0.0276
Cu275  Cu  0.5500  0.8333  0.0276
Cu276  Cu  0.6500  0.8333  0.0276
Cu277  Cu  0.7500  0.8333  0.0276
Cu278  Cu  0.8500  0.8333  0.0276
Cu279  Cu  0.9500  0.8333  0.0276
Cu280  Cu  0.0500  0.9000  0.0276
Cu281  Cu  0.1500  0.9000  0.0276
Cu282  Cu  0.2500  0.9000  0.0276
Cu283  Cu  0.3500  0.9000  0.0276
Cu284  Cu  0.4500  0.9000  0.0276
Cu285  Cu  0.5500  0.9000  0.0276
Cu286  Cu  0.6500  0.9000  0.0276
Cu287  Cu  0.7500  0.9000  0.0276
Cu288  Cu  0.8500  0.9000  0.0276
Cu289  Cu  0.9500  0.9000  0.0276
Cu290  Cu  0.0500  0.9667  0.0276
Cu291  Cu  0.1500  0.9667  0.0276
Cu292  Cu  0.2500  0.9667  0.0276
Cu293  Cu  0.3500  0.9667  0.0276
Cu294  Cu  0.4500  0.9667  0.0276
Cu295  Cu  0.5500  0.9667  0.0276
Cu296  Cu  0.6500  0.9667  0.0276
Cu297  Cu  0.7500  0.9667  0.0276
Cu298  Cu  0.8500  0.9667  0.0276
Cu299  Cu  0.9500  0.9667  0.0276
Cu300  Cu  0.0000  0.0000  0.0553
Cu301  Cu  0.1000  0.0000  0.0553
Cu302  Cu  0.2000  0.0000  0.0553
Cu303  Cu  0.3000  0.0000  0.0553
Cu304  Cu  0.4000  0.0000  0.0553
Cu305  Cu  0.5000  0.0000  0.0553
Cu306  Cu  0.6000  0.0000  0.0553
Cu307  Cu  0.7000  0.0000  0.0553
Cu308  Cu  0.8000  0.0000  0.0553
Cu309  Cu  0.9000  0.0000  0.0553
Cu310  Cu  0.0000  0.0667  0.0553
Cu311  Cu  0.1000  0.0667  0.0553
Cu312  Cu  0.2000  0.0667  0.0553
Cu313  Cu  0.3000  0.0667  0.0553
Cu314  Cu  0.4000  0.0667  0.0553
Cu315  Cu  0.5000  0.0667  0.0553
Cu316  Cu  0.6000  0.0667  0.0553
Cu317  Cu  0.7000  0.0667  0.0553
Cu318  Cu  0.8000  0.0667  0.0553
Cu319  Cu  0.9000  0.0667  0.0553
Cu320  Cu  0.0000  0.1333  0.0553
Cu321  Cu  0.1000  0.1333  0.0553
Cu322  Cu  0.2000  0.1333  0.0553
Cu323  Cu  0.3000  0.1333  0.0553
Cu324  Cu  0.4000  0.1333  0.0553
Cu325  Cu  0.5000  0.1333  0.0553
Cu326  Cu  0.6000  0.1333  0.0553
Cu327  Cu  0.7000  0.1333  0.0553
Cu328  Cu  0.8000  0.1333  0.0553
Cu329  Cu  0.9000  0.1333  0.0553
Cu330  Cu  0.0000  0.2000  0.0553
Cu331  Cu  0.1000  0.2000  0.0553
Cu332  Cu  0.2000  0.2000  0.0553
Cu333  Cu  0.3000  0.2000  0.0553
Cu334  Cu  0.4000  0.2000  0.0553
Cu335  Cu  0.5000  0.2000  0.0553
Cu336  Cu  0.6000  0.2000  0.0553
Cu337  Cu  0.7000  0.2000  0.0553
Cu338  Cu  0.8000  0.2000  0.0553
Cu339  Cu  0.9000  0.2000  0.0553
Cu340  Cu  0.0000  0.2667  0.0553
Cu341  Cu  0.1000  0.2667  0.0553
Cu342  Cu  0.2000  0.2667  0.0553
Cu343  Cu  0.3000  0.2667  0.0553
Cu344  Cu  0.4000  0.2667  0.0553
Cu345  Cu  0.5000  0.2667  0.0553
Cu346  Cu  0.6000  0.2667  0.0553
Cu347  Cu  0.7000  0.2667  0.0553
Cu348  Cu  0.8000  0.2667  0.0553
Cu349  Cu  0.9000  0.2667  0.0553
Cu350  Cu  0.0000  0.3333  0.0553
Cu351  Cu  0.1000  0.3333  0.0553
Cu352  Cu  0.2000  0.3333  0.0553
Cu353  Cu  0.3000  0.3333  0.0553
Cu354  Cu  0.4000  0.3333  0.0553
Cu355  Cu  0.5000  0.3333  0.0553
Cu356  Cu  0.6000  0.3333  0.0553
Cu357  Cu  0.7000  0.3333  0.0553
Cu358  Cu  0.8000  0.3333  0.0553
Cu359  Cu  0.9000  0.3333  0.0553
Cu360  Cu  0.0000  0.4000  0.0553
Cu361  Cu  0.1000  0.4000  0.0553
Cu362  Cu  0.2000  0.4000  0.0553
Cu363  Cu  0.3000  0.4000  0.0553
Cu364  Cu  0.4000  0.4000  0.0553
Cu365  Cu  0.5000  0.4000  0.0553
Cu366  Cu  0.6000  0.4000  0.0553
Cu367  Cu  0.7000  0.4000  0.0553
Cu368  Cu  0.8000  0.4000  0.0553
Cu369  Cu  0.9000  0.4000  0.0553
Cu370  Cu  0.0000  0.4667  0.0553
Cu371  Cu  0.1000  0.4667  0.0553
Cu372  Cu  0.2000  0.4667  0.0553
Cu373  Cu  0.3000  0.4667  0.0553
Cu374  Cu  0.4000  0.4667  0.0553
Cu375  Cu  0.5000  0.4667  0.0553
Cu376  Cu  0.6000  0.4667  0.0553
Cu377  Cu  0.7000  0.4667  0.0553
Cu378  Cu  0.8000  0.4667  0.0553
Cu379  Cu  0.9000  0.4667  0.0553
Cu380  Cu  0.0000  0.5333  0.0553
Cu381  Cu  0.1000  0.5333  0.0553
Cu382  Cu  0.2000  0.5333  0.0553
Cu383  Cu  0.3000  0.5333  0.0553
Cu384  Cu  0.4000  0.5333  0.0553
Cu385  Cu  0.5000  0.5333  0.0553
Cu386  Cu  0.6000  0.5333  0.0553
Cu387  Cu  0.7000  0.5333  0.0553
Cu388  Cu  0.8000  0.5333  0.0553
Cu389  Cu  0.9000  0.5333  0.0553
Cu390  Cu  0.0000  0.6000  0.0553
Cu391  Cu  0.1000  0.6000  0.0553
Cu392  Cu  0.2000  0.6000  0.0553
Cu393  Cu  0.3000  0.6000  0.0553
Cu394  Cu  0.4000  0.6000  0.0553
Cu395  Cu  0.5000  0.6000  0.0553
Cu396  Cu  0.6000  0.6000  0.0553
Cu397  Cu  0.7000  0.6000  0.0553
Cu398  Cu  0.8000  0.6000  0.0553
Cu399  Cu  0.9000  0.6000  0.0553
Cu400  Cu  0.0000  0.6667  0.0553
Cu401  Cu  0.1000  0.6667  0.0553
Cu402  Cu  0.2000  0.6667  0.0553
Cu403  Cu  0.3000  0.6667  0.0553
Cu404  Cu  0.4000  0.6667  0.0553
Cu405  Cu  0.5000  0.6667  0.0553
Cu406  Cu  0.6000  0.6667  0.0553
Cu407  Cu  0.7000  0.6667  0.0553
Cu408  Cu  0.8000  0.6667  0.0553
Cu409  Cu  0.9000  0.6667  0.0553
Cu410  Cu  0.0000  0.7333  0.0553
Cu411  Cu  0.1000  0.7333  0.0553
Cu412  Cu  0.2000  0.7333  0.0553
Cu413  Cu  0.3000  0.7333  0.0553
Cu414  Cu  0.4000  0.7333  0.0553
Cu415  Cu  0.5000  0.7333  0.0553
Cu416  Cu  0.6000  0.7333  0.0553
Cu417  Cu  0.7000  0.7333  0.0553
Cu418  Cu  0.8000  0.7333  0.0553
Cu419  Cu  0.9000  0.7333  0.0553
Cu420  Cu  0.0000  0.8000  0.0553
Cu421  Cu  0.1000  0.8000  0.0553
Cu422  Cu  0.2000  0.8000  0.0553
Cu423  Cu  0.3000  0.8000  0.0553
Cu424  Cu  0.4000  0.8000  0.0553
Cu425  Cu  0.5000  0.8000  0.0553
Cu426  Cu  0.6000  0.8000  0.0553
Cu427  Cu  0.7000  0.8000  0.0553
Cu428  Cu  0.8000  0.8000  0.0553
Cu429  Cu  0.9000  0.8000  0.0553
Cu430  Cu  0.0000  0.8667  0.0553
Cu431  Cu  0.1000  0.8667  0.0553
Cu432  Cu  0.2000  0.8667  0.0553
Cu433  Cu  0.3000  0.8667  0.0553
Cu434  Cu  0.4000  0.8667  0.0553
Cu435  Cu  0.5000  0.8667  0.0553
Cu436  Cu  0.6000  0.8667  0.0553
Cu437  Cu  0.7000  0.8667  0.0553
Cu438  Cu  0.8000  0.8667  0.0553
Cu439  Cu  0.9000  0.8667  0.0553
Cu440  Cu  0.0000  0.9333  0.0553
Cu441  Cu  0.1000  0.9333  0.0553
Cu442  Cu  0.2000  0.9333  0.0553
Cu443  Cu  0.3000  0.9333  0.0553
Cu444  Cu  0.4000  0.9333  0.0553
Cu445  Cu  0.5000  0.9333  0.0553
Cu446  Cu  0.6000  0.9333  0.0553
Cu447  Cu  0.7000  0.9333  0.0553
Cu448  Cu  0.8000  0.9333  0.0553
Cu449  Cu  0.9000  0.9333  0.0553
Cu450  Cu  0.0500  0.0333  0.0829
Cu451  Cu  0.1500  0.0333  0.0829
Cu452  Cu  0.2500  0.0333  0.0829
Cu453  Cu  0.3500  0.0333  0.0829
Cu454  Cu  0.4500  0.0333  0.0829
Cu455  Cu  0.5500  0.0333  0.0829
Cu456  Cu  0.6500  0.0333  0.0829
Cu457  Cu  0.7500  0.0333  0.0829
Cu458  Cu  0.8500  0.0333  0.0829
Cu459  Cu  0.9500  0.0333  0.0829
Cu460  Cu  0.0500  0.1000  0.0829
Cu461  Cu  0.1500  0.1000  0.0829
Cu462  Cu  0.2500  0.1000  0.0829
Cu463  Cu  0.3500  0.1000  0.0829
Cu464  Cu  0.4500  0.1000  0.0829
Cu465  Cu  0.5500  0.1000  0.0829
Cu466  Cu  0.6500  0.1000  0.0829
Cu467  Cu  0.7500  0.1000  0.0829
Cu468  Cu  0.8500  0.1000  0.0829
Cu469  Cu  0.9500  0.1000  0.0829
Cu470  Cu  0.0500  0.1667  0.0829
Cu471  Cu  0.1500  0.1667  0.0829
Cu472  Cu  0.2500  0.1667  0.0829
Cu473  Cu  0.3500  0.1667  0.0829
Cu474  Cu  0.4500  0.1667  0.0829
Cu475  Cu  0.5500  0.1667  0.0829
Cu476  Cu  0.6500  0.1667  0.0829
Cu477  Cu  0.7500  0.1667  0.0829
Cu478  Cu  0.8500  0.1667  0.0829
Cu479  Cu  0.9500  0.1667  0.0829
Cu480  Cu  0.0500  0.2333  0.0829
Cu481  Cu  0.1500  0.2333  0.0829
Cu482  Cu  0.2500  0.2333  0.0829
Cu483  Cu  0.3500  0.2333  0.0829
Cu484  Cu  0.4500  0.2333  0.0829
Cu485  Cu  0.5500  0.2333  0.0829
Cu486  Cu  0.6500  0.2333  0.0829
Cu487  Cu  0.7500  0.2333  0.0829
Cu488  Cu  0.8500  0.2333  0.0829
Cu489  Cu  0.9500  0.2333  0.0829
Cu490  Cu  0.0500  0.3000  0.0829
Cu491  Cu  0.1500  0.3000  0.0829
Cu492  Cu  0.2500  0.3000  0.0829
Cu493  Cu  0.3500  0.3000  0.0829
Cu494  Cu  0.4500  0.3000  0.0829
Cu495  Cu  0.5500  0.3000  0.0829
Cu496  Cu  0.6500  0.3000  0.0829
Cu497  Cu  0.7500  0.3000  0.0829
Cu498  Cu  0.8500  0.3000  0.0829
Cu499  Cu  0.9500  0.3000  0.0829
Cu500  Cu  0.0500  0.3667  0.0829
Cu501  Cu  0.1500  0.3667  0.0829
Cu502  Cu  0.2500  0.3667  0.0829
Cu503  Cu  0.3500  0.3667  0.0829
Cu504  Cu  0.4500  0.3667  0.0829
Cu505  Cu  0.5500  0.3667  0.0829
Cu506  Cu  0.6500  0.3667  0.0829
Cu507  Cu  0.7500  0.3667  0.0829
Cu508  Cu  0.8500  0.3667  0.0829
Cu509  Cu  0.9500  0.3667  0.0829
Cu510  Cu  0.0500  0.4333  0.0829
Cu511  Cu  0.1500  0.4333  0.0829
Cu512  Cu  0.2500  0.4333  0.0829
Cu513  Cu  0.3500  0.4333  0.0829
Cu514  Cu  0.4500  0.4333  0.0829
Cu515  Cu  0.5500  0.4333  0.0829
Cu516  Cu  0.6500  0.4333  0.0829
Cu517  Cu  0.7500  0.4333  0.0829
Cu518  Cu  0.8500  0.4333  0.0829
Cu519  Cu  0.9500  0.4333  0.0829
Cu520  Cu  0.0500  0.5000  0.0829
Cu521  Cu  0.1500  0.5000  0.0829
Cu522  Cu  0.2500  0.5000  0.0829
Cu523  Cu  0.3500  0.5000  0.0829
Cu524  Cu  0.4500  0.5000  0.0829
Cu525  Cu  0.5500  0.5000  0.0829
Cu526  Cu  0.6500  0.5000  0.0829
Cu527  Cu  0.7500  0.5000  0.0829
Cu528  Cu  0.8500  0.5000  0.0829
Cu529  Cu  0.9500  0.5000  0.0829
Cu530  Cu  0.0500  0.5667  0.0829
Cu531  Cu  0.1500  0.5667  0.0829
Cu532  Cu  0.2500  0.5667  0.0829
Cu533  Cu  0.3500  0.5667  0.0829
Cu534  Cu  0.4500  0.5667  0.0829
Cu535  Cu  0.5500  0.5667  0.0829
Cu536  Cu  0.6500  0.5667  0.0829
Cu537  Cu  0.7500  0.5667  0.0829
Cu538  Cu  0.8500  0.5667  0.0829
Cu539  Cu  0.9500  0.5667  0.0829
Cu540  Cu  0.0500  0.6333  0.0829
Cu541  Cu  0.1500  0.6333  0.0829
Cu542  Cu  0.2500  0.6333  0.0829
Cu543  Cu  0.3500  0.6333  0.0829
Cu544  Cu  0.4500  0.6333  0.0829
Cu545  Cu  0.5500  0.6333  0.0829
Cu546  Cu  0.6500  0.6333  0.0829
Cu547  Cu  0.7500  0.6333  0.0829
Cu548  Cu  0.8500  0.6333  0.0829
Cu549  Cu  0.9500  0.6333  0.0829
Cu550  Cu  0.0500  0.7000  0.0829
Cu551  Cu  0.1500  0.7000  0.0829
Cu552  Cu  0.2500  0.7000  0.0829
Cu553  Cu  0.3500  0.7000  0.0829
Cu554  Cu  0.4500  0.7000  0.0829
Cu555  Cu  0.5500  0.7000  0.0829
Cu556  Cu  0.6500  0.7000  0.0829
Cu557  Cu  0.7500  0.7000  0.0829
Cu558  Cu  0.8500  0.7000  0.0829
Cu559  Cu  0.9500  0.7000  0.0829
Cu560  Cu  0.0500  0.7667  0.0829
Cu561  Cu  0.1500  0.7667  0.0829
Cu562  Cu  0.2500  0.7667  0.0829
Cu563  Cu  0.3500  0.7667  0.0829
Cu564  Cu  0.4500  0.7667  0.0829
Cu565  Cu  0.5500  0.7667  0.0829
Cu566  Cu  0.6500  0.7667  0.0829
Cu567  Cu  0.7500  0.7667  0.0829
Cu568  Cu  0.8500  0.7667  0.0829
Cu569  Cu  0.9500  0.7667  0.0829
Cu570  Cu  0.0500  0.8333  0.0829
Cu571  Cu  0.1500  0.8333  0.0829
Cu572  Cu  0.2500  0.8333  0.0829
Cu573  Cu  0.3500  0.8333  0.0829
Cu574  Cu  0.4500  0.8333  0.0829
Cu575  Cu  0.5500  0.8333  0.0829
Cu576  Cu  0.6500  0.8333  0.0829
Cu577  Cu  0.7500  0.8333  0.0829
Cu578  Cu  0.8500  0.8333  0.0829
Cu579  Cu  0.9500  0.8333  0.0829
Cu580  Cu  0.0500  0.9000  0.0829
Cu581  Cu  0.1500  0.9000  0.0829
Cu582  Cu  0.2500  0.9000  0.0829
Cu583  Cu  0.3500  0.9000  0.0829
Cu584  Cu  0.4500  0.9000  0.0829
Cu585  Cu  0.5500  0.9000  0.0829
Cu586  Cu  0.6500  0.9000  0.0829
Cu587  Cu  0.7500  0.9000  0.0829
Cu588  Cu  0.8500  0.9000  0.0829
Cu589  Cu  0.9500  0.9000  0.0829
Cu590  Cu  0.0500  0.9667  0.0829
Cu591  Cu  0.1500  0.9667  0.0829
Cu592  Cu  0.2500  0.9667  0.0829
Cu593  Cu  0.3500  0.9667  0.0829
Cu594  Cu  0.4500  0.9667  0.0829
Cu595  Cu  0.5500  0.9667  0.0829
Cu596  Cu  0.6500  0.9667  0.0829
Cu597  Cu  0.7500  0.9667  0.0829
Cu598  Cu  0.8500  0.9667  0.0829
Cu599  Cu  0.9500  0.9667  0.0829
Cu600  Cu  0.0000  0.0000  0.1105
Cu601  Cu  0.1000  0.0000  0.1105
Cu602  Cu  0.2000  0.0000  0.1105
Cu603  Cu  0.3000  0.0000  0.1105
Cu604  Cu  0.4000  0.0000  0.1105
Cu605  Cu  0.5000  0.0000  0.1105
Cu606  Cu  0.6000  0.0000  0.1105
Cu607  Cu  0.7000  0.0000  0.1105
Cu608  Cu  0.8000  0.0000  0.1105
Cu609  Cu  0.9000  0.0000  0.1105
Cu610  Cu  0.0000  0.0667  0.1105
Cu611  Cu  0.1000  0.0667  0.1105
Cu612  Cu  0.2000  0.0667  0.1105
Cu613  Cu  0.3000  0.0667  0.1105
Cu614  Cu  0.4000  0.0667  0.1105
Cu615  Cu  0.5000  0.0667  0.1105
Cu616  Cu  0.6000  0.0667  0.1105
Cu617  Cu  0.7000  0.0667  0.1105
Cu618  Cu  0.8000  0.0667  0.1105
Cu619  Cu  0.9000  0.0667  0.1105
Cu620  Cu  0.0000  0.1333  0.1105
Cu621  Cu  0.1000  0.1333  0.1105
Cu622  Cu  0.2000  0.1333  0.1105
Cu623  Cu  0.3000  0.1333  0.1105
Cu624  Cu  0.4000  0.1333  0.1105
Cu625  Cu  0.5000  0.1333  0.1105
Cu626  Cu  0.6000  0.1333  0.1105
Cu627  Cu  0.7000  0.1333  0.1105
Cu628  Cu  0.8000  0.1333  0.1105
Cu629  Cu  0.9000  0.1333  0.1105
Cu630  Cu  0.0000  0.2000  0.1105
Cu631  Cu  0.1000  0.2000  0.1105
Cu632  Cu  0.2000  0.2000  0.1105
Cu633  Cu  0.3000  0.2000  0.1105
Cu634  Cu  0.4000  0.2000  0.1105
Cu635  Cu  0.5000  0.2000  0.1105
Cu636  Cu  0.6000  0.2000  0.1105
Cu637  Cu  0.7000  0.2000  0.1105
Cu638  Cu  0.8000  0.2000  0.1105
Cu639  Cu  0.9000  0.2000  0.1105
Cu640  Cu  0.0000  0.2667  0.1105
Cu641  Cu  0.1000  0.2667  0.1105
Cu642  Cu  0.2000  0.2667  0.1105
Cu643  Cu  0.3000  0.2667  0.1105
Cu644  Cu  0.4000  0.2667  0.1105
Cu645  Cu  0.5000  0.2667  0.1105
Cu646  Cu  0.6000  0.2667  0.1105
Cu647  Cu  0.7000  0.2667  0.1105
Cu648  Cu  0.8000  0.2667  0.1105
Cu649  Cu  0.9000  0.2667  0.1105
Cu650  Cu  0.0000  0.3333  0.1105
Cu651  Cu  0.1000  0.3333  0.1105
Cu652  Cu  0.2000  0.3333  0.1105
Cu653  Cu  0.3000  0.3333  0.1105
Cu654  Cu  0.4000  0.3333  0.1105
Cu655  Cu  0.5000  0.3333  0.1105
Cu656  Cu  0.6000  0.3333  0.1105
Cu657  Cu  0.7000  0.3333  0.1105
Cu658  Cu  0.8000  0.3333  0.1105
Cu659  Cu  0.9000  0.3333  0.1105
Cu660  Cu  0.0000  0.4000  0.1105
Cu661  Cu  0.1000  0.4000  0.1105
Cu662  Cu  0.2000  0.4000  0.1105
Cu663  Cu  0.3000  0.4000  0.1105
Cu664  Cu  0.4000  0.4000  0.1105
Cu665  Cu  0.5000  0.4000  0.1105
Cu666  Cu  0.6000  0.4000  0.1105
Cu667  Cu  0.7000  0.4000  0.1105
Cu668  Cu  0.8000  0.4000  0.1105
Cu669  Cu  0.9000  0.4000  0.1105
Cu670  Cu  0.0000  0.4667  0.1105
Cu671  Cu  0.1000  0.4667  0.1105
Cu672  Cu  0.2000  0.4667  0.1105
Cu673  Cu  0.3000  0.4667  0.1105
Cu674  Cu  0.4000  0.4667  0.1105
Cu675  Cu  0.5000  0.4667  0.1105
Cu676  Cu  0.6000  0.4667  0.1105
Cu677  Cu  0.7000  0.4667  0.1105
Cu678  Cu  0.8000  0.4667  0.1105
Cu679  Cu  0.9000  0.4667  0.1105
Cu680  Cu  0.0000  0.5333  0.1105
Cu681  Cu  0.1000  0.5333  0.1105
Cu682  Cu  0.2000  0.5333  0.1105
Cu683  Cu  0.3000  0.5333  0.1105
Cu684  Cu  0.4000  0.5333  0.1105
Cu685  Cu  0.5000  0.5333  0.1105
Cu686  Cu  0.6000  0.5333  0.1105
Cu687  Cu  0.7000  0.5333  0.1105
Cu688  Cu  0.8000  0.5333  0.1105
Cu689  Cu  0.9000  0.5333  0.1105
Cu690  Cu  0.0000  0.6000  0.1105
Cu691  Cu  0.1000  0.6000  0.1105
Cu692  Cu  0.2000  0.6000  0.1105
Cu693  Cu  0.3000  0.6000  0.1105
Cu694  Cu  0.4000  0.6000  0.1105
Cu695  Cu  0.5000  0.6000  0.1105
Cu696  Cu  0.6000  0.6000  0.1105
Cu697  Cu  0.7000  0.6000  0.1105
Cu698  Cu  0.8000  0.6000  0.1105
Cu699  Cu  0.9000  0.6000  0.1105
Cu700  Cu  0.0000  0.6667  0.1105
Cu701  Cu  0.1000  0.6667  0.1105
Cu702  Cu  0.2000  0.6667  0.1105
Cu703  Cu  0.3000  0.6667  0.1105
Cu704  Cu  0.4000  0.6667  0.1105
Cu705  Cu  0.5000  0.6667  0.1105
Cu706  Cu  0.6000  0.6667  0.1105
Cu707  Cu  0.7000  0.6667  0.1105
Cu708  Cu  0.8000  0.6667  0.1105
Cu709  Cu  0.9000  0.6667  0.1105
Cu710  Cu  0.0000  0.7333  0.1105
Cu711  Cu  0.1000  0.7333  0.1105
Cu712  Cu  0.2000  0.7333  0.1105
Cu713  Cu  0.3000  0.7333  0.1105
Cu714  Cu  0.4000  0.7333  0.1105
Cu715  Cu  0.5000  0.7333  0.1105
Cu716  Cu  0.6000  0.7333  0.1105
Cu717  Cu  0.7000  0.7333  0.1105
Cu718  Cu  0.8000  0.7333  0.1105
Cu719  Cu  0.9000  0.7333  0.1105
Cu720  Cu  0.0000  0.8000  0.1105
Cu721  Cu  0.1000  0.8000  0.1105
Cu722  Cu  0.2000  0.8000  0.1105
Cu723  Cu  0.3000  0.8000  0.1105
Cu724  Cu  0.4000  0.8000  0.1105
Cu725  Cu  0.5000  0.8000  0.1105
Cu726  Cu  0.6000  0.8000  0.1105
Cu727  Cu  0.7000  0.8000  0.1105
Cu728  Cu  0.8000  0.8000  0.1105
Cu729  Cu  0.9000  0.8000  0.1105
Cu730  Cu  0.0000  0.8667  0.1105
Cu731  Cu  0.1000  0.8667  0.1105
Cu732  Cu  0.2000  0.8667  0.1105
Cu733  Cu  0.3000  0.8667  0.1105
Cu734  Cu  0.4000  0.8667  0.1105
Cu735  Cu  0.5000  0.8667  0.1105
Cu736  Cu  0.6000  0.8667  0.1105
Cu737  Cu  0.7000  0.8667  0.1105
Cu738  Cu  0.8000  0.8667  0.1105
Cu739  Cu  0.9000  0.8667  0.1105
Cu740  Cu  0.0000  0.9333  0.1105
Cu741  Cu  0.1000  0.9333  0.1105
Cu742  Cu  0.2000  0.9333  0.1105
Cu743  Cu  0.3000  0.9333  0.1105
Cu744  Cu  0.4000  0.9333  0.1105
Cu745  Cu  0.5000  0.9333  0.1105
Cu746  Cu  0.6000  0.9333  0.1105
Cu747  Cu  0.7000  0.9333  0.1105
Cu748  Cu  0.8000  0.9333  0.1105
Cu749  Cu  0.9000  0.9333  0.1105
C750   C  0.4336  0.4804  0.2105
C751   C  0.5064  0.4804  0.2105
C752   C  0.4874  0.4504  0.2100
C753   C  0.4884  0.5095  0.2100
C754   C  0.4526  0.4504  0.2110
C755   C  0.4516  0.5095  0.2111
C756   C  0.4700  0.5961  0.2105
C757   C  0.4700  0.5622  0.2105
C758   C  0.5130  0.4242  0.2069
C759   C  0.5117  0.3915  0.2016
C760   C  0.5428  0.3742  0.1992
C761   C  0.5737  0.3882  0.2020
C762   C  0.5765  0.4218  0.2072
C763   C  0.6064  0.4398  0.2103
C764   C  0.6046  0.4725  0.2145
C765   C  0.5734  0.4896  0.2158
C766   C  0.5429  0.4727  0.2114
C767   C  0.5454  0.4387  0.2084
C768   C  0.4999  0.5433  0.2084
C769   C  0.5304  0.5594  0.2033
C770   C  0.5307  0.5933  0.2030
C771   C  0.5020  0.6116  0.2068
H772   H  0.4902  0.3807  0.1995
H773   H  0.5419  0.3515  0.1953
H774   H  0.5941  0.3754  0.2006
H775   H  0.6283  0.4293  0.2093
H776   H  0.6256  0.4843  0.2168
H777   H  0.5730  0.5123  0.2195
H778   H  0.5511  0.5475  0.2001
H779   H  0.5520  0.6041  0.1999
H780   H  0.5035  0.6347  0.2070
C781   C  0.4270  0.4242  0.2142
C782   C  0.4282  0.3915  0.2195
C783   C  0.3972  0.3742  0.2219
C784   C  0.3663  0.3882  0.2190
C785   C  0.3635  0.4218  0.2138
C786   C  0.3336  0.4398  0.2108
C787   C  0.3354  0.4725  0.2066
C788   C  0.3666  0.4896  0.2053
C789   C  0.3971  0.4727  0.2097
C790   C  0.3945  0.4387  0.2127
C791   C  0.4380  0.6116  0.2142
C792   C  0.4093  0.5933  0.2181
C793   C  0.4096  0.5594  0.2177
C794   C  0.4401  0.5433  0.2127
H795   H  0.3890  0.5475  0.2209
H796   H  0.3879  0.6041  0.2211
H797   H  0.4365  0.6347  0.2141
H798   H  0.3670  0.5123  0.2015
H799   H  0.3144  0.4843  0.2043
H800   H  0.3117  0.4293  0.2117
H801   H  0.3459  0.3754  0.2205
H802   H  0.3982  0.3515  0.2257
H803   H  0.4498  0.3807  0.2215
