data_mol
_cell_length_a                   35.9700
_cell_length_b                   38.1520
_cell_length_c                   20.0870
_cell_angle_alpha                90.0000
_cell_angle_beta                 90.0000
_cell_angle_gamma                90.0000
_symmetry_space_group_name_Hall  'P1'
_symmetry_space_group_name_H-M   'P1'
loop_
_atom_site_label
_atom_site_type_symbol
_atom_site_fract_x
_atom_site_fract_y
_atom_site_fract_z
Pd0    Pd  0.0000  0.0000  0.0000
Pd1    Pd  0.1000  0.0000  0.0000
Pd2    Pd  0.2000  0.0000  0.0000
Pd3    Pd  0.3000  0.0000  0.0000
Pd4    Pd  0.4000  0.0000  0.0000
Pd5    Pd  0.5000  0.0000  0.0000
Pd6    Pd  0.6000  0.0000  0.0000
Pd7    Pd  0.7000  0.0000  0.0000
Pd8    Pd  0.8000  0.0000  0.0000
Pd9    Pd  0.9000  0.0000  0.0000
Pd10   Pd  0.0000  0.0667  0.0000
Pd11   Pd  0.1000  0.0667  0.0000
Pd12   Pd  0.2000  0.0667  0.0000
Pd13   Pd  0.3000  0.0667  0.0000
Pd14   Pd  0.4000  0.0667  0.0000
Pd15   Pd  0.5000  0.0667  0.0000
Pd16   Pd  0.6000  0.0667  0.0000
Pd17   Pd  0.7000  0.0667  0.0000
Pd18   Pd  0.8000  0.0667  0.0000
Pd19   Pd  0.9000  0.0667  0.0000
Pd20   Pd  0.0000  0.1333  0.0000
Pd21   Pd  0.1000  0.1333  0.0000
Pd22   Pd  0.2000  0.1333  0.0000
Pd23   Pd  0.3000  0.1333  0.0000
Pd24   Pd  0.4000  0.1333  0.0000
Pd25   Pd  0.5000  0.1333  0.0000
Pd26   Pd  0.6000  0.1333  0.0000
Pd27   Pd  0.7000  0.1333  0.0000
Pd28   Pd  0.8000  0.1333  0.0000
Pd29   Pd  0.9000  0.1333  0.0000
Pd30   Pd  0.0000  0.2000  0.0000
Pd31   Pd  0.1000  0.2000  0.0000
Pd32   Pd  0.2000  0.2000  0.0000
Pd33   Pd  0.3000  0.2000  0.0000
Pd34   Pd  0.4000  0.2000  0.0000
Pd35   Pd  0.5000  0.2000  0.0000
Pd36   Pd  0.6000  0.2000  0.0000
Pd37   Pd  0.7000  0.2000  0.0000
Pd38   Pd  0.8000  0.2000  0.0000
Pd39   Pd  0.9000  0.2000  0.0000
Pd40   Pd  0.0000  0.2667  0.0000
Pd41   Pd  0.1000  0.2667  0.0000
Pd42   Pd  0.2000  0.2667  0.0000
Pd43   Pd  0.3000  0.2667  0.0000
Pd44   Pd  0.4000  0.2667  0.0000
Pd45   Pd  0.5000  0.2667  0.0000
Pd46   Pd  0.6000  0.2667  0.0000
Pd47   Pd  0.7000  0.2667  0.0000
Pd48   Pd  0.8000  0.2667  0.0000
Pd49   Pd  0.9000  0.2667  0.0000
Pd50   Pd  0.0000  0.3333  0.0000
Pd51   Pd  0.1000  0.3333  0.0000
Pd52   Pd  0.2000  0.3333  0.0000
Pd53   Pd  0.3000  0.3333  0.0000
Pd54   Pd  0.4000  0.3333  0.0000
Pd55   Pd  0.5000  0.3333  0.0000
Pd56   Pd  0.6000  0.3333  0.0000
Pd57   Pd  0.7000  0.3333  0.0000
Pd58   Pd  0.8000  0.3333  0.0000
Pd59   Pd  0.9000  0.3333  0.0000
Pd60   Pd  0.0000  0.4000  0.0000
Pd61   Pd  0.1000  0.4000  0.0000
Pd62   Pd  0.2000  0.4000  0.0000
Pd63   Pd  0.3000  0.4000  0.0000
Pd64   Pd  0.4000  0.4000  0.0000
Pd65   Pd  0.5000  0.4000  0.0000
Pd66   Pd  0.6000  0.4000  0.0000
Pd67   Pd  0.7000  0.4000  0.0000
Pd68   Pd  0.8000  0.4000  0.0000
Pd69   Pd  0.9000  0.4000  0.0000
Pd70   Pd  0.0000  0.4667  0.0000
Pd71   Pd  0.1000  0.4667  0.0000
Pd72   Pd  0.2000  0.4667  0.0000
Pd73   Pd  0.3000  0.4667  0.0000
Pd74   Pd  0.4000  0.4667  0.0000
Pd75   Pd  0.5000  0.4667  0.0000
Pd76   Pd  0.6000  0.4667  0.0000
Pd77   Pd  0.7000  0.4667  0.0000
Pd78   Pd  0.8000  0.4667  0.0000
Pd79   Pd  0.9000  0.4667  0.0000
Pd80   Pd  0.0000  0.5333  0.0000
Pd81   Pd  0.1000  0.5333  0.0000
Pd82   Pd  0.2000  0.5333  0.0000
Pd83   Pd  0.3000  0.5333  0.0000
Pd84   Pd  0.4000  0.5333  0.0000
Pd85   Pd  0.5000  0.5333  0.0000
Pd86   Pd  0.6000  0.5333  0.0000
Pd87   Pd  0.7000  0.5333  0.0000
Pd88   Pd  0.8000  0.5333  0.0000
Pd89   Pd  0.9000  0.5333  0.0000
Pd90   Pd  0.0000  0.6000  0.0000
Pd91   Pd  0.1000  0.6000  0.0000
Pd92   Pd  0.2000  0.6000  0.0000
Pd93   Pd  0.3000  0.6000  0.0000
Pd94   Pd  0.4000  0.6000  0.0000
Pd95   Pd  0.5000  0.6000  0.0000
Pd96   Pd  0.6000  0.6000  0.0000
Pd97   Pd  0.7000  0.6000  0.0000
Pd98   Pd  0.8000  0.6000  0.0000
Pd99   Pd  0.9000  0.6000  0.0000
Pd100  Pd  0.0000  0.6667  0.0000
Pd101  Pd  0.1000  0.6667  0.0000
Pd102  Pd  0.2000  0.6667  0.0000
Pd103  Pd  0.3000  0.6667  0.0000
Pd104  Pd  0.4000  0.6667  0.0000
Pd105  Pd  0.5000  0.6667  0.0000
Pd106  Pd  0.6000  0.6667  0.0000
Pd107  Pd  0.7000  0.6667  0.0000
Pd108  Pd  0.8000  0.6667  0.0000
Pd109  Pd  0.9000  0.6667  0.0000
Pd110  Pd  0.0000  0.7333  0.0000
Pd111  Pd  0.1000  0.7333  0.0000
Pd112  Pd  0.2000  0.7333  0.0000
Pd113  Pd  0.3000  0.7333  0.0000
Pd114  Pd  0.4000  0.7333  0.0000
Pd115  Pd  0.5000  0.7333  0.0000
Pd116  Pd  0.6000  0.7333  0.0000
Pd117  Pd  0.7000  0.7333  0.0000
Pd118  Pd  0.8000  0.7333  0.0000
Pd119  Pd  0.9000  0.7333  0.0000
Pd120  Pd  0.0000  0.8000  0.0000
Pd121  Pd  0.1000  0.8000  0.0000
Pd122  Pd  0.2000  0.8000  0.0000
Pd123  Pd  0.3000  0.8000  0.0000
Pd124  Pd  0.4000  0.8000  0.0000
Pd125  Pd  0.5000  0.8000  0.0000
Pd126  Pd  0.6000  0.8000  0.0000
Pd127  Pd  0.7000  0.8000  0.0000
Pd128  Pd  0.8000  0.8000  0.0000
Pd129  Pd  0.9000  0.8000  0.0000
Pd130  Pd  0.0000  0.8667  0.0000
Pd131  Pd  0.1000  0.8667  0.0000
Pd132  Pd  0.2000  0.8667  0.0000
Pd133  Pd  0.3000  0.8667  0.0000
Pd134  Pd  0.4000  0.8667  0.0000
Pd135  Pd  0.5000  0.8667  0.0000
Pd136  Pd  0.6000  0.8667  0.0000
Pd137  Pd  0.7000  0.8667  0.0000
Pd138  Pd  0.8000  0.8667  0.0000
Pd139  Pd  0.9000  0.8667  0.0000
Pd140  Pd  0.0000  0.9333  0.0000
Pd141  Pd  0.1000  0.9333  0.0000
Pd142  Pd  0.2000  0.9333  0.0000
Pd143  Pd  0.3000  0.9333  0.0000
Pd144  Pd  0.4000  0.9333  0.0000
Pd145  Pd  0.5000  0.9333  0.0000
Pd146  Pd  0.6000  0.9333  0.0000
Pd147  Pd  0.7000  0.9333  0.0000
Pd148  Pd  0.8000  0.9333  0.0000
Pd149  Pd  0.9000  0.9333  0.0000
Pd150  Pd  0.0500  0.0333  0.0843
Pd151  Pd  0.1500  0.0333  0.0843
Pd152  Pd  0.2500  0.0333  0.0843
Pd153  Pd  0.3500  0.0333  0.0843
Pd154  Pd  0.4500  0.0333  0.0843
Pd155  Pd  0.5500  0.0333  0.0843
Pd156  Pd  0.6500  0.0333  0.0843
Pd157  Pd  0.7500  0.0333  0.0843
Pd158  Pd  0.8500  0.0333  0.0843
Pd159  Pd  0.9500  0.0333  0.0843
Pd160  Pd  0.0500  0.1000  0.0843
Pd161  Pd  0.1500  0.1000  0.0843
Pd162  Pd  0.2500  0.1000  0.0843
Pd163  Pd  0.3500  0.1000  0.0843
Pd164  Pd  0.4500  0.1000  0.0843
Pd165  Pd  0.5500  0.1000  0.0843
Pd166  Pd  0.6500  0.1000  0.0843
Pd167  Pd  0.7500  0.1000  0.0843
Pd168  Pd  0.8500  0.1000  0.0843
Pd169  Pd  0.9500  0.1000  0.0843
Pd170  Pd  0.0500  0.1667  0.0843
Pd171  Pd  0.1500  0.1667  0.0843
Pd172  Pd  0.2500  0.1667  0.0843
Pd173  Pd  0.3500  0.1667  0.0843
Pd174  Pd  0.4500  0.1667  0.0843
Pd175  Pd  0.5500  0.1667  0.0843
Pd176  Pd  0.6500  0.1667  0.0843
Pd177  Pd  0.7500  0.1667  0.0843
Pd178  Pd  0.8500  0.1667  0.0843
Pd179  Pd  0.9500  0.1667  0.0843
Pd180  Pd  0.0500  0.2333  0.0843
Pd181  Pd  0.1500  0.2333  0.0843
Pd182  Pd  0.2500  0.2333  0.0843
Pd183  Pd  0.3500  0.2333  0.0843
Pd184  Pd  0.4500  0.2333  0.0843
Pd185  Pd  0.5500  0.2333  0.0843
Pd186  Pd  0.6500  0.2333  0.0843
Pd187  Pd  0.7500  0.2333  0.0843
Pd188  Pd  0.8500  0.2333  0.0843
Pd189  Pd  0.9500  0.2333  0.0843
Pd190  Pd  0.0500  0.3000  0.0843
Pd191  Pd  0.1500  0.3000  0.0843
Pd192  Pd  0.2500  0.3000  0.0843
Pd193  Pd  0.3500  0.3000  0.0843
Pd194  Pd  0.4500  0.3000  0.0843
Pd195  Pd  0.5500  0.3000  0.0843
Pd196  Pd  0.6500  0.3000  0.0843
Pd197  Pd  0.7500  0.3000  0.0843
Pd198  Pd  0.8500  0.3000  0.0843
Pd199  Pd  0.9500  0.3000  0.0843
Pd200  Pd  0.0500  0.3667  0.0843
Pd201  Pd  0.1500  0.3667  0.0843
Pd202  Pd  0.2500  0.3667  0.0843
Pd203  Pd  0.3500  0.3667  0.0843
Pd204  Pd  0.4500  0.3667  0.0843
Pd205  Pd  0.5500  0.3667  0.0843
Pd206  Pd  0.6500  0.3667  0.0843
Pd207  Pd  0.7500  0.3667  0.0843
Pd208  Pd  0.8500  0.3667  0.0843
Pd209  Pd  0.9500  0.3667  0.0843
Pd210  Pd  0.0500  0.4333  0.0843
Pd211  Pd  0.1500  0.4333  0.0843
Pd212  Pd  0.2500  0.4333  0.0843
Pd213  Pd  0.3500  0.4333  0.0843
Pd214  Pd  0.4500  0.4333  0.0843
Pd215  Pd  0.5500  0.4333  0.0843
Pd216  Pd  0.6500  0.4333  0.0843
Pd217  Pd  0.7500  0.4333  0.0843
Pd218  Pd  0.8500  0.4333  0.0843
Pd219  Pd  0.9500  0.4333  0.0843
Pd220  Pd  0.0500  0.5000  0.0843
Pd221  Pd  0.1500  0.5000  0.0843
Pd222  Pd  0.2500  0.5000  0.0843
Pd223  Pd  0.3500  0.5000  0.0843
Pd224  Pd  0.4500  0.5000  0.0843
Pd225  Pd  0.5500  0.5000  0.0843
Pd226  Pd  0.6500  0.5000  0.0843
Pd227  Pd  0.7500  0.5000  0.0843
Pd228  Pd  0.8500  0.5000  0.0843
Pd229  Pd  0.9500  0.5000  0.0843
Pd230  Pd  0.0500  0.5667  0.0843
Pd231  Pd  0.1500  0.5667  0.0843
Pd232  Pd  0.2500  0.5667  0.0843
Pd233  Pd  0.3500  0.5667  0.0843
Pd234  Pd  0.4500  0.5667  0.0843
Pd235  Pd  0.5500  0.5667  0.0843
Pd236  Pd  0.6500  0.5667  0.0843
Pd237  Pd  0.7500  0.5667  0.0843
Pd238  Pd  0.8500  0.5667  0.0843
Pd239  Pd  0.9500  0.5667  0.0843
Pd240  Pd  0.0500  0.6333  0.0843
Pd241  Pd  0.1500  0.6333  0.0843
Pd242  Pd  0.2500  0.6333  0.0843
Pd243  Pd  0.3500  0.6333  0.0843
Pd244  Pd  0.4500  0.6333  0.0843
Pd245  Pd  0.5500  0.6333  0.0843
Pd246  Pd  0.6500  0.6333  0.0843
Pd247  Pd  0.7500  0.6333  0.0843
Pd248  Pd  0.8500  0.6333  0.0843
Pd249  Pd  0.9500  0.6333  0.0843
Pd250  Pd  0.0500  0.7000  0.0843
Pd251  Pd  0.1500  0.7000  0.0843
Pd252  Pd  0.2500  0.7000  0.0843
Pd253  Pd  0.3500  0.7000  0.0843
Pd254  Pd  0.4500  0.7000  0.0843
Pd255  Pd  0.5500  0.7000  0.0843
Pd256  Pd  0.6500  0.7000  0.0843
Pd257  Pd  0.7500  0.7000  0.0843
Pd258  Pd  0.8500  0.7000  0.0843
Pd259  Pd  0.9500  0.7000  0.0843
Pd260  Pd  0.0500  0.7667  0.0843
Pd261  Pd  0.1500  0.7667  0.0843
Pd262  Pd  0.2500  0.7667  0.0843
Pd263  Pd  0.3500  0.7667  0.0843
Pd264  Pd  0.4500  0.7667  0.0843
Pd265  Pd  0.5500  0.7667  0.0843
Pd266  Pd  0.6500  0.7667  0.0843
Pd267  Pd  0.7500  0.7667  0.0843
Pd268  Pd  0.8500  0.7667  0.0843
Pd269  Pd  0.9500  0.7667  0.0843
Pd270  Pd  0.0500  0.8333  0.0843
Pd271  Pd  0.1500  0.8333  0.0843
Pd272  Pd  0.2500  0.8333  0.0843
Pd273  Pd  0.3500  0.8333  0.0843
Pd274  Pd  0.4500  0.8333  0.0843
Pd275  Pd  0.5500  0.8333  0.0843
Pd276  Pd  0.6500  0.8333  0.0843
Pd277  Pd  0.7500  0.8333  0.0843
Pd278  Pd  0.8500  0.8333  0.0843
Pd279  Pd  0.9500  0.8333  0.0843
Pd280  Pd  0.0500  0.9000  0.0843
Pd281  Pd  0.1500  0.9000  0.0843
Pd282  Pd  0.2500  0.9000  0.0843
Pd283  Pd  0.3500  0.9000  0.0843
Pd284  Pd  0.4500  0.9000  0.0843
Pd285  Pd  0.5500  0.9000  0.0843
Pd286  Pd  0.6500  0.9000  0.0843
Pd287  Pd  0.7500  0.9000  0.0843
Pd288  Pd  0.8500  0.9000  0.0843
Pd289  Pd  0.9500  0.9000  0.0843
Pd290  Pd  0.0500  0.9667  0.0843
Pd291  Pd  0.1500  0.9667  0.0843
Pd292  Pd  0.2500  0.9667  0.0843
Pd293  Pd  0.3500  0.9667  0.0843
Pd294  Pd  0.4500  0.9667  0.0843
Pd295  Pd  0.5500  0.9667  0.0843
Pd296  Pd  0.6500  0.9667  0.0843
Pd297  Pd  0.7500  0.9667  0.0843
Pd298  Pd  0.8500  0.9667  0.0843
Pd299  Pd  0.9500  0.9667  0.0843
Pd300  Pd  0.0000  0.0000  0.1686
Pd301  Pd  0.1000  0.0000  0.1686
Pd302  Pd  0.2000  0.0000  0.1686
Pd303  Pd  0.3000  0.0000  0.1686
Pd304  Pd  0.4000  0.0000  0.1686
Pd305  Pd  0.5000  0.0000  0.1686
Pd306  Pd  0.6000  0.0000  0.1686
Pd307  Pd  0.7000  0.0000  0.1686
Pd308  Pd  0.8000  0.0000  0.1686
Pd309  Pd  0.9000  0.0000  0.1686
Pd310  Pd  0.0000  0.0667  0.1686
Pd311  Pd  0.1000  0.0667  0.1686
Pd312  Pd  0.2000  0.0667  0.1686
Pd313  Pd  0.3000  0.0667  0.1686
Pd314  Pd  0.4000  0.0667  0.1686
Pd315  Pd  0.5000  0.0667  0.1686
Pd316  Pd  0.6000  0.0667  0.1686
Pd317  Pd  0.7000  0.0667  0.1686
Pd318  Pd  0.8000  0.0667  0.1686
Pd319  Pd  0.9000  0.0667  0.1686
Pd320  Pd  0.0000  0.1333  0.1686
Pd321  Pd  0.1000  0.1333  0.1686
Pd322  Pd  0.2000  0.1333  0.1686
Pd323  Pd  0.3000  0.1333  0.1686
Pd324  Pd  0.4000  0.1333  0.1686
Pd325  Pd  0.5000  0.1333  0.1686
Pd326  Pd  0.6000  0.1333  0.1686
Pd327  Pd  0.7000  0.1333  0.1686
Pd328  Pd  0.8000  0.1333  0.1686
Pd329  Pd  0.9000  0.1333  0.1686
Pd330  Pd  0.0000  0.2000  0.1686
Pd331  Pd  0.1000  0.2000  0.1686
Pd332  Pd  0.2000  0.2000  0.1686
Pd333  Pd  0.3000  0.2000  0.1686
Pd334  Pd  0.4000  0.2000  0.1686
Pd335  Pd  0.5000  0.2000  0.1686
Pd336  Pd  0.6000  0.2000  0.1686
Pd337  Pd  0.7000  0.2000  0.1686
Pd338  Pd  0.8000  0.2000  0.1686
Pd339  Pd  0.9000  0.2000  0.1686
Pd340  Pd  0.0000  0.2667  0.1686
Pd341  Pd  0.1000  0.2667  0.1686
Pd342  Pd  0.2000  0.2667  0.1686
Pd343  Pd  0.3000  0.2667  0.1686
Pd344  Pd  0.4000  0.2667  0.1686
Pd345  Pd  0.5000  0.2667  0.1686
Pd346  Pd  0.6000  0.2667  0.1686
Pd347  Pd  0.7000  0.2667  0.1686
Pd348  Pd  0.8000  0.2667  0.1686
Pd349  Pd  0.9000  0.2667  0.1686
Pd350  Pd  0.0000  0.3333  0.1686
Pd351  Pd  0.1000  0.3333  0.1686
Pd352  Pd  0.2000  0.3333  0.1686
Pd353  Pd  0.3000  0.3333  0.1686
Pd354  Pd  0.4000  0.3333  0.1686
Pd355  Pd  0.5000  0.3333  0.1686
Pd356  Pd  0.6000  0.3333  0.1686
Pd357  Pd  0.7000  0.3333  0.1686
Pd358  Pd  0.8000  0.3333  0.1686
Pd359  Pd  0.9000  0.3333  0.1686
Pd360  Pd  0.0000  0.4000  0.1686
Pd361  Pd  0.1000  0.4000  0.1686
Pd362  Pd  0.2000  0.4000  0.1686
Pd363  Pd  0.3000  0.4000  0.1686
Pd364  Pd  0.4000  0.4000  0.1686
Pd365  Pd  0.5000  0.4000  0.1686
Pd366  Pd  0.6000  0.4000  0.1686
Pd367  Pd  0.7000  0.4000  0.1686
Pd368  Pd  0.8000  0.4000  0.1686
Pd369  Pd  0.9000  0.4000  0.1686
Pd370  Pd  0.0000  0.4667  0.1686
Pd371  Pd  0.1000  0.4667  0.1686
Pd372  Pd  0.2000  0.4667  0.1686
Pd373  Pd  0.3000  0.4667  0.1686
Pd374  Pd  0.4000  0.4667  0.1686
Pd375  Pd  0.5000  0.4667  0.1686
Pd376  Pd  0.6000  0.4667  0.1686
Pd377  Pd  0.7000  0.4667  0.1686
Pd378  Pd  0.8000  0.4667  0.1686
Pd379  Pd  0.9000  0.4667  0.1686
Pd380  Pd  0.0000  0.5333  0.1686
Pd381  Pd  0.1000  0.5333  0.1686
Pd382  Pd  0.2000  0.5333  0.1686
Pd383  Pd  0.3000  0.5333  0.1686
Pd384  Pd  0.4000  0.5333  0.1686
Pd385  Pd  0.5000  0.5333  0.1686
Pd386  Pd  0.6000  0.5333  0.1686
Pd387  Pd  0.7000  0.5333  0.1686
Pd388  Pd  0.8000  0.5333  0.1686
Pd389  Pd  0.9000  0.5333  0.1686
Pd390  Pd  0.0000  0.6000  0.1686
Pd391  Pd  0.1000  0.6000  0.1686
Pd392  Pd  0.2000  0.6000  0.1686
Pd393  Pd  0.3000  0.6000  0.1686
Pd394  Pd  0.4000  0.6000  0.1686
Pd395  Pd  0.5000  0.6000  0.1686
Pd396  Pd  0.6000  0.6000  0.1686
Pd397  Pd  0.7000  0.6000  0.1686
Pd398  Pd  0.8000  0.6000  0.1686
Pd399  Pd  0.9000  0.6000  0.1686
Pd400  Pd  0.0000  0.6667  0.1686
Pd401  Pd  0.1000  0.6667  0.1686
Pd402  Pd  0.2000  0.6667  0.1686
Pd403  Pd  0.3000  0.6667  0.1686
Pd404  Pd  0.4000  0.6667  0.1686
Pd405  Pd  0.5000  0.6667  0.1686
Pd406  Pd  0.6000  0.6667  0.1686
Pd407  Pd  0.7000  0.6667  0.1686
Pd408  Pd  0.8000  0.6667  0.1686
Pd409  Pd  0.9000  0.6667  0.1686
Pd410  Pd  0.0000  0.7333  0.1686
Pd411  Pd  0.1000  0.7333  0.1686
Pd412  Pd  0.2000  0.7333  0.1686
Pd413  Pd  0.3000  0.7333  0.1686
Pd414  Pd  0.4000  0.7333  0.1686
Pd415  Pd  0.5000  0.7333  0.1686
Pd416  Pd  0.6000  0.7333  0.1686
Pd417  Pd  0.7000  0.7333  0.1686
Pd418  Pd  0.8000  0.7333  0.1686
Pd419  Pd  0.9000  0.7333  0.1686
Pd420  Pd  0.0000  0.8000  0.1686
Pd421  Pd  0.1000  0.8000  0.1686
Pd422  Pd  0.2000  0.8000  0.1686
Pd423  Pd  0.3000  0.8000  0.1686
Pd424  Pd  0.4000  0.8000  0.1686
Pd425  Pd  0.5000  0.8000  0.1686
Pd426  Pd  0.6000  0.8000  0.1686
Pd427  Pd  0.7000  0.8000  0.1686
Pd428  Pd  0.8000  0.8000  0.1686
Pd429  Pd  0.9000  0.8000  0.1686
Pd430  Pd  0.0000  0.8667  0.1686
Pd431  Pd  0.1000  0.8667  0.1686
Pd432  Pd  0.2000  0.8667  0.1686
Pd433  Pd  0.3000  0.8667  0.1686
Pd434  Pd  0.4000  0.8667  0.1686
Pd435  Pd  0.5000  0.8667  0.1686
Pd436  Pd  0.6000  0.8667  0.1686
Pd437  Pd  0.7000  0.8667  0.1686
Pd438  Pd  0.8000  0.8667  0.1686
Pd439  Pd  0.9000  0.8667  0.1686
Pd440  Pd  0.0000  0.9333  0.1686
Pd441  Pd  0.1000  0.9333  0.1686
Pd442  Pd  0.2000  0.9333  0.1686
Pd443  Pd  0.3000  0.9333  0.1686
Pd444  Pd  0.4000  0.9333  0.1686
Pd445  Pd  0.5000  0.9333  0.1686
Pd446  Pd  0.6000  0.9333  0.1686
Pd447  Pd  0.7000  0.9333  0.1686
Pd448  Pd  0.8000  0.9333  0.1686
Pd449  Pd  0.9000  0.9333  0.1686
Pd450  Pd  0.0500  0.0333  0.2529
Pd451  Pd  0.1500  0.0333  0.2529
Pd452  Pd  0.2500  0.0333  0.2529
Pd453  Pd  0.3500  0.0333  0.2529
Pd454  Pd  0.4500  0.0333  0.2529
Pd455  Pd  0.5500  0.0333  0.2529
Pd456  Pd  0.6500  0.0333  0.2529
Pd457  Pd  0.7500  0.0333  0.2529
Pd458  Pd  0.8500  0.0333  0.2529
Pd459  Pd  0.9500  0.0333  0.2529
Pd460  Pd  0.0500  0.1000  0.2529
Pd461  Pd  0.1500  0.1000  0.2529
Pd462  Pd  0.2500  0.1000  0.2529
Pd463  Pd  0.3500  0.1000  0.2529
Pd464  Pd  0.4500  0.1000  0.2529
Pd465  Pd  0.5500  0.1000  0.2529
Pd466  Pd  0.6500  0.1000  0.2529
Pd467  Pd  0.7500  0.1000  0.2529
Pd468  Pd  0.8500  0.1000  0.2529
Pd469  Pd  0.9500  0.1000  0.2529
Pd470  Pd  0.0500  0.1667  0.2529
Pd471  Pd  0.1500  0.1667  0.2529
Pd472  Pd  0.2500  0.1667  0.2529
Pd473  Pd  0.3500  0.1667  0.2529
Pd474  Pd  0.4500  0.1667  0.2529
Pd475  Pd  0.5500  0.1667  0.2529
Pd476  Pd  0.6500  0.1667  0.2529
Pd477  Pd  0.7500  0.1667  0.2529
Pd478  Pd  0.8500  0.1667  0.2529
Pd479  Pd  0.9500  0.1667  0.2529
Pd480  Pd  0.0500  0.2333  0.2529
Pd481  Pd  0.1500  0.2333  0.2529
Pd482  Pd  0.2500  0.2333  0.2529
Pd483  Pd  0.3500  0.2333  0.2529
Pd484  Pd  0.4500  0.2333  0.2529
Pd485  Pd  0.5500  0.2333  0.2529
Pd486  Pd  0.6500  0.2333  0.2529
Pd487  Pd  0.7500  0.2333  0.2529
Pd488  Pd  0.8500  0.2333  0.2529
Pd489  Pd  0.9500  0.2333  0.2529
Pd490  Pd  0.0500  0.3000  0.2529
Pd491  Pd  0.1500  0.3000  0.2529
Pd492  Pd  0.2500  0.3000  0.2529
Pd493  Pd  0.3500  0.3000  0.2529
Pd494  Pd  0.4500  0.3000  0.2529
Pd495  Pd  0.5500  0.3000  0.2529
Pd496  Pd  0.6500  0.3000  0.2529
Pd497  Pd  0.7500  0.3000  0.2529
Pd498  Pd  0.8500  0.3000  0.2529
Pd499  Pd  0.9500  0.3000  0.2529
Pd500  Pd  0.0500  0.3667  0.2529
Pd501  Pd  0.1500  0.3667  0.2529
Pd502  Pd  0.2500  0.3667  0.2529
Pd503  Pd  0.3500  0.3667  0.2529
Pd504  Pd  0.4500  0.3667  0.2529
Pd505  Pd  0.5500  0.3667  0.2529
Pd506  Pd  0.6500  0.3667  0.2529
Pd507  Pd  0.7500  0.3667  0.2529
Pd508  Pd  0.8500  0.3667  0.2529
Pd509  Pd  0.9500  0.3667  0.2529
Pd510  Pd  0.0500  0.4333  0.2529
Pd511  Pd  0.1500  0.4333  0.2529
Pd512  Pd  0.2500  0.4333  0.2529
Pd513  Pd  0.3500  0.4333  0.2529
Pd514  Pd  0.4500  0.4333  0.2529
Pd515  Pd  0.5500  0.4333  0.2529
Pd516  Pd  0.6500  0.4333  0.2529
Pd517  Pd  0.7500  0.4333  0.2529
Pd518  Pd  0.8500  0.4333  0.2529
Pd519  Pd  0.9500  0.4333  0.2529
Pd520  Pd  0.0500  0.5000  0.2529
Pd521  Pd  0.1500  0.5000  0.2529
Pd522  Pd  0.2500  0.5000  0.2529
Pd523  Pd  0.3500  0.5000  0.2529
Pd524  Pd  0.4500  0.5000  0.2529
Pd525  Pd  0.5500  0.5000  0.2529
Pd526  Pd  0.6500  0.5000  0.2529
Pd527  Pd  0.7500  0.5000  0.2529
Pd528  Pd  0.8500  0.5000  0.2529
Pd529  Pd  0.9500  0.5000  0.2529
Pd530  Pd  0.0500  0.5667  0.2529
Pd531  Pd  0.1500  0.5667  0.2529
Pd532  Pd  0.2500  0.5667  0.2529
Pd533  Pd  0.3500  0.5667  0.2529
Pd534  Pd  0.4500  0.5667  0.2529
Pd535  Pd  0.5500  0.5667  0.2529
Pd536  Pd  0.6500  0.5667  0.2529
Pd537  Pd  0.7500  0.5667  0.2529
Pd538  Pd  0.8500  0.5667  0.2529
Pd539  Pd  0.9500  0.5667  0.2529
Pd540  Pd  0.0500  0.6333  0.2529
Pd541  Pd  0.1500  0.6333  0.2529
Pd542  Pd  0.2500  0.6333  0.2529
Pd543  Pd  0.3500  0.6333  0.2529
Pd544  Pd  0.4500  0.6333  0.2529
Pd545  Pd  0.5500  0.6333  0.2529
Pd546  Pd  0.6500  0.6333  0.2529
Pd547  Pd  0.7500  0.6333  0.2529
Pd548  Pd  0.8500  0.6333  0.2529
Pd549  Pd  0.9500  0.6333  0.2529
Pd550  Pd  0.0500  0.7000  0.2529
Pd551  Pd  0.1500  0.7000  0.2529
Pd552  Pd  0.2500  0.7000  0.2529
Pd553  Pd  0.3500  0.7000  0.2529
Pd554  Pd  0.4500  0.7000  0.2529
Pd555  Pd  0.5500  0.7000  0.2529
Pd556  Pd  0.6500  0.7000  0.2529
Pd557  Pd  0.7500  0.7000  0.2529
Pd558  Pd  0.8500  0.7000  0.2529
Pd559  Pd  0.9500  0.7000  0.2529
Pd560  Pd  0.0500  0.7667  0.2529
Pd561  Pd  0.1500  0.7667  0.2529
Pd562  Pd  0.2500  0.7667  0.2529
Pd563  Pd  0.3500  0.7667  0.2529
Pd564  Pd  0.4500  0.7667  0.2529
Pd565  Pd  0.5500  0.7667  0.2529
Pd566  Pd  0.6500  0.7667  0.2529
Pd567  Pd  0.7500  0.7667  0.2529
Pd568  Pd  0.8500  0.7667  0.2529
Pd569  Pd  0.9500  0.7667  0.2529
Pd570  Pd  0.0500  0.8333  0.2529
Pd571  Pd  0.1500  0.8333  0.2529
Pd572  Pd  0.2500  0.8333  0.2529
Pd573  Pd  0.3500  0.8333  0.2529
Pd574  Pd  0.4500  0.8333  0.2529
Pd575  Pd  0.5500  0.8333  0.2529
Pd576  Pd  0.6500  0.8333  0.2529
Pd577  Pd  0.7500  0.8333  0.2529
Pd578  Pd  0.8500  0.8333  0.2529
Pd579  Pd  0.9500  0.8333  0.2529
Pd580  Pd  0.0500  0.9000  0.2529
Pd581  Pd  0.1500  0.9000  0.2529
Pd582  Pd  0.2500  0.9000  0.2529
Pd583  Pd  0.3500  0.9000  0.2529
Pd584  Pd  0.4500  0.9000  0.2529
Pd585  Pd  0.5500  0.9000  0.2529
Pd586  Pd  0.6500  0.9000  0.2529
Pd587  Pd  0.7500  0.9000  0.2529
Pd588  Pd  0.8500  0.9000  0.2529
Pd589  Pd  0.9500  0.9000  0.2529
Pd590  Pd  0.0500  0.9667  0.2529
Pd591  Pd  0.1500  0.9667  0.2529
Pd592  Pd  0.2500  0.9667  0.2529
Pd593  Pd  0.3500  0.9667  0.2529
Pd594  Pd  0.4500  0.9667  0.2529
Pd595  Pd  0.5500  0.9667  0.2529
Pd596  Pd  0.6500  0.9667  0.2529
Pd597  Pd  0.7500  0.9667  0.2529
Pd598  Pd  0.8500  0.9667  0.2529
Pd599  Pd  0.9500  0.9667  0.2529
Pd600  Pd  0.0000  0.0000  0.3372
Pd601  Pd  0.1000  0.0000  0.3372
Pd602  Pd  0.2000  0.0000  0.3372
Pd603  Pd  0.3000  0.0000  0.3372
Pd604  Pd  0.4000  0.0000  0.3372
Pd605  Pd  0.5000  0.0000  0.3372
Pd606  Pd  0.6000  0.0000  0.3372
Pd607  Pd  0.7000  0.0000  0.3372
Pd608  Pd  0.8000  0.0000  0.3372
Pd609  Pd  0.9000  0.0000  0.3372
Pd610  Pd  0.0000  0.0667  0.3372
Pd611  Pd  0.1000  0.0667  0.3372
Pd612  Pd  0.2000  0.0667  0.3372
Pd613  Pd  0.3000  0.0667  0.3372
Pd614  Pd  0.4000  0.0667  0.3372
Pd615  Pd  0.5000  0.0667  0.3372
Pd616  Pd  0.6000  0.0667  0.3372
Pd617  Pd  0.7000  0.0667  0.3372
Pd618  Pd  0.8000  0.0667  0.3372
Pd619  Pd  0.9000  0.0667  0.3372
Pd620  Pd  0.0000  0.1333  0.3372
Pd621  Pd  0.1000  0.1333  0.3372
Pd622  Pd  0.2000  0.1333  0.3372
Pd623  Pd  0.3000  0.1333  0.3372
Pd624  Pd  0.4000  0.1333  0.3372
Pd625  Pd  0.5000  0.1333  0.3372
Pd626  Pd  0.6000  0.1333  0.3372
Pd627  Pd  0.7000  0.1333  0.3372
Pd628  Pd  0.8000  0.1333  0.3372
Pd629  Pd  0.9000  0.1333  0.3372
Pd630  Pd  0.0000  0.2000  0.3372
Pd631  Pd  0.1000  0.2000  0.3372
Pd632  Pd  0.2000  0.2000  0.3372
Pd633  Pd  0.3000  0.2000  0.3372
Pd634  Pd  0.4000  0.2000  0.3372
Pd635  Pd  0.5000  0.2000  0.3372
Pd636  Pd  0.6000  0.2000  0.3372
Pd637  Pd  0.7000  0.2000  0.3372
Pd638  Pd  0.8000  0.2000  0.3372
Pd639  Pd  0.9000  0.2000  0.3372
Pd640  Pd  0.0000  0.2667  0.3372
Pd641  Pd  0.1000  0.2667  0.3372
Pd642  Pd  0.2000  0.2667  0.3372
Pd643  Pd  0.3000  0.2667  0.3372
Pd644  Pd  0.4000  0.2667  0.3372
Pd645  Pd  0.5000  0.2667  0.3372
Pd646  Pd  0.6000  0.2667  0.3372
Pd647  Pd  0.7000  0.2667  0.3372
Pd648  Pd  0.8000  0.2667  0.3372
Pd649  Pd  0.9000  0.2667  0.3372
Pd650  Pd  0.0000  0.3333  0.3372
Pd651  Pd  0.1000  0.3333  0.3372
Pd652  Pd  0.2000  0.3333  0.3372
Pd653  Pd  0.3000  0.3333  0.3372
Pd654  Pd  0.4000  0.3333  0.3372
Pd655  Pd  0.5000  0.3333  0.3372
Pd656  Pd  0.6000  0.3333  0.3372
Pd657  Pd  0.7000  0.3333  0.3372
Pd658  Pd  0.8000  0.3333  0.3372
Pd659  Pd  0.9000  0.3333  0.3372
Pd660  Pd  0.0000  0.4000  0.3372
Pd661  Pd  0.1000  0.4000  0.3372
Pd662  Pd  0.2000  0.4000  0.3372
Pd663  Pd  0.3000  0.4000  0.3372
Pd664  Pd  0.4000  0.4000  0.3372
Pd665  Pd  0.5000  0.4000  0.3372
Pd666  Pd  0.6000  0.4000  0.3372
Pd667  Pd  0.7000  0.4000  0.3372
Pd668  Pd  0.8000  0.4000  0.3372
Pd669  Pd  0.9000  0.4000  0.3372
Pd670  Pd  0.0000  0.4667  0.3372
Pd671  Pd  0.1000  0.4667  0.3372
Pd672  Pd  0.2000  0.4667  0.3372
Pd673  Pd  0.3000  0.4667  0.3372
Pd674  Pd  0.4000  0.4667  0.3372
Pd675  Pd  0.5000  0.4667  0.3372
Pd676  Pd  0.6000  0.4667  0.3372
Pd677  Pd  0.7000  0.4667  0.3372
Pd678  Pd  0.8000  0.4667  0.3372
Pd679  Pd  0.9000  0.4667  0.3372
Pd680  Pd  0.0000  0.5333  0.3372
Pd681  Pd  0.1000  0.5333  0.3372
Pd682  Pd  0.2000  0.5333  0.3372
Pd683  Pd  0.3000  0.5333  0.3372
Pd684  Pd  0.4000  0.5333  0.3372
Pd685  Pd  0.5000  0.5333  0.3372
Pd686  Pd  0.6000  0.5333  0.3372
Pd687  Pd  0.7000  0.5333  0.3372
Pd688  Pd  0.8000  0.5333  0.3372
Pd689  Pd  0.9000  0.5333  0.3372
Pd690  Pd  0.0000  0.6000  0.3372
Pd691  Pd  0.1000  0.6000  0.3372
Pd692  Pd  0.2000  0.6000  0.3372
Pd693  Pd  0.3000  0.6000  0.3372
Pd694  Pd  0.4000  0.6000  0.3372
Pd695  Pd  0.5000  0.6000  0.3372
Pd696  Pd  0.6000  0.6000  0.3372
Pd697  Pd  0.7000  0.6000  0.3372
Pd698  Pd  0.8000  0.6000  0.3372
Pd699  Pd  0.9000  0.6000  0.3372
Pd700  Pd  0.0000  0.6667  0.3372
Pd701  Pd  0.1000  0.6667  0.3372
Pd702  Pd  0.2000  0.6667  0.3372
Pd703  Pd  0.3000  0.6667  0.3372
Pd704  Pd  0.4000  0.6667  0.3372
Pd705  Pd  0.5000  0.6667  0.3372
Pd706  Pd  0.6000  0.6667  0.3372
Pd707  Pd  0.7000  0.6667  0.3372
Pd708  Pd  0.8000  0.6667  0.3372
Pd709  Pd  0.9000  0.6667  0.3372
Pd710  Pd  0.0000  0.7333  0.3372
Pd711  Pd  0.1000  0.7333  0.3372
Pd712  Pd  0.2000  0.7333  0.3372
Pd713  Pd  0.3000  0.7333  0.3372
Pd714  Pd  0.4000  0.7333  0.3372
Pd715  Pd  0.5000  0.7333  0.3372
Pd716  Pd  0.6000  0.7333  0.3372
Pd717  Pd  0.7000  0.7333  0.3372
Pd718  Pd  0.8000  0.7333  0.3372
Pd719  Pd  0.9000  0.7333  0.3372
Pd720  Pd  0.0000  0.8000  0.3372
Pd721  Pd  0.1000  0.8000  0.3372
Pd722  Pd  0.2000  0.8000  0.3372
Pd723  Pd  0.3000  0.8000  0.3372
Pd724  Pd  0.4000  0.8000  0.3372
Pd725  Pd  0.5000  0.8000  0.3372
Pd726  Pd  0.6000  0.8000  0.3372
Pd727  Pd  0.7000  0.8000  0.3372
Pd728  Pd  0.8000  0.8000  0.3372
Pd729  Pd  0.9000  0.8000  0.3372
Pd730  Pd  0.0000  0.8667  0.3372
Pd731  Pd  0.1000  0.8667  0.3372
Pd732  Pd  0.2000  0.8667  0.3372
Pd733  Pd  0.3000  0.8667  0.3372
Pd734  Pd  0.4000  0.8667  0.3372
Pd735  Pd  0.5000  0.8667  0.3372
Pd736  Pd  0.6000  0.8667  0.3372
Pd737  Pd  0.7000  0.8667  0.3372
Pd738  Pd  0.8000  0.8667  0.3372
Pd739  Pd  0.9000  0.8667  0.3372
Pd740  Pd  0.0000  0.9333  0.3372
Pd741  Pd  0.1000  0.9333  0.3372
Pd742  Pd  0.2000  0.9333  0.3372
Pd743  Pd  0.3000  0.9333  0.3372
Pd744  Pd  0.4000  0.9333  0.3372
Pd745  Pd  0.5000  0.9333  0.3372
Pd746  Pd  0.6000  0.9333  0.3372
Pd747  Pd  0.7000  0.9333  0.3372
Pd748  Pd  0.8000  0.9333  0.3372
Pd749  Pd  0.9000  0.9333  0.3372
C750   C  0.4233  0.4194  0.6806
C751   C  0.4246  0.3838  0.6983
C752   C  0.3909  0.3651  0.7062
C753   C  0.3573  0.3803  0.6967
C754   C  0.3543  0.4167  0.6795
C755   C  0.3218  0.4363  0.6695
C756   C  0.3237  0.4719  0.6554
C757   C  0.3577  0.4904  0.6513
C758   C  0.3908  0.4721  0.6658
C759   C  0.3880  0.4351  0.6756
C760   C  0.4511  0.4479  0.6702
C761   C  0.4305  0.4805  0.6686
C762   C  0.4500  0.5121  0.6705
C763   C  0.4376  0.5487  0.6757
C764   C  0.4044  0.5662  0.6924
C765   C  0.4040  0.6031  0.6935
C766   C  0.4352  0.6230  0.6809
C767   C  0.4700  0.6062  0.6686
C768   C  0.4700  0.5693  0.6686
H769   H  0.4481  0.3721  0.7051
H770   H  0.3919  0.3404  0.7189
H771   H  0.3352  0.3664  0.7017
H772   H  0.2980  0.4249  0.6726
H773   H  0.3010  0.4847  0.6480
H774   H  0.3581  0.5150  0.6388
H775   H  0.3819  0.5533  0.7031
H776   H  0.3809  0.6148  0.7037
H777   H  0.4336  0.6481  0.6802
C778   C  0.4889  0.4479  0.6669
C779   C  0.5167  0.4194  0.6565
C780   C  0.5154  0.3838  0.6389
C781   C  0.5491  0.3651  0.6309
C782   C  0.5827  0.3803  0.6405
C783   C  0.5857  0.4167  0.6576
C784   C  0.6182  0.4363  0.6677
C785   C  0.6163  0.4719  0.6818
C786   C  0.5823  0.4904  0.6859
C787   C  0.5492  0.4721  0.6714
C788   C  0.5520  0.4351  0.6615
C789   C  0.5095  0.4805  0.6686
C790   C  0.4900  0.5121  0.6667
C791   C  0.5048  0.6230  0.6563
C792   C  0.5360  0.6031  0.6436
C793   C  0.5356  0.5662  0.6447
C794   C  0.5025  0.5487  0.6614
H795   H  0.5580  0.5533  0.6341
H796   H  0.5592  0.6148  0.6335
H797   H  0.5064  0.6481  0.6569
H798   H  0.5820  0.5150  0.6984
H799   H  0.6390  0.4847  0.6892
H800   H  0.6420  0.4249  0.6646
H801   H  0.6048  0.3664  0.6355
H802   H  0.5481  0.3404  0.6183
H803   H  0.4919  0.3721  0.6321
